LAMMPS (29 Oct 2020)
units		metal
atom_style	atomic
variable	d uloop 10

boundary        p  p  f
read_data /Users/jamespittard/Documents/Culham/DEV/multi_bombard_hpc/LAMMPS_files/data.new_data
Reading data file ...
  orthogonal box = (0.0000000 0.0000000 -80.000000) to (28.536000 28.536000 107.38700)
  reading atoms ...
  4839 atoms
#replicate 8 8 4

#number_of_sheets 4
#atom_type d
#diamond_type 100

#read_data /Users/jamespittard/Documents/Culham/DEV/multi_bombard_hpc/LAMMPS_files/#data.graphite_sheet add append shift 0 0 0

change_box      all z final  -80 107.387
Changing box ...
  orthogonal box = (0.0000000 0.0000000 -80.000000) to (28.536000 28.536000 107.38700)
region		1 block 0 21.4774 0 21.4774 0 107.387
region box block -28.536 32.103 -28.536 32.103 -35.0 -25.0
#^^^^ region that bombarding particle is produced
group		car type 1
4316 atoms in group car

velocity all create 300 45734 rot yes dist gaussian

neighbor	0.5 bin
neigh_modify	delay 0 every 1 check yes
pair_style      rebo
pair_coeff * * /Users/jamespittard/Documents/Culham/DEV/multi_bombard_hpc/LAMMPS_files/CH.rebo C H H
Reading rebo potential file /Users/jamespittard/Documents/Culham/DEV/multi_bombard_hpc/LAMMPS_files/CH.rebo with DATE: 2018-7-3
#pair_style	airebo 3.0 1 1
#pair_coeff	* * CH.airebo C H
pair_modify	shift yes

timestep 0.0001
thermo 		10
fix             1 all nve
fix 2 car temp/csld 300 300 0.1 51874
fix 		3 all recenter NULL NULL INIT
thermo_style 	custom step time temp press etotal vol

dump		2 all xyz 100 *.xyz
#dump		1 all custom 100 *.xyz id type x y z
run 300 #prebombardment run
  update every 1 steps, delay 0 steps, check yes
Step Time Temp Press TotEng Volume
0            0          300    4642.3557   -31499.384    152589.85
Loop time of 4.40233 on 1 procs for 300 steps with 4839 atoms

thermo_modify   lost warn
label           nextd

create_atoms	2 random 1 $d3$d7 box
create_atoms	2 random 1 13$d7 box
create_atoms	2 random 1 1317 box
Created 1 atoms
set region box vx 0 vy 0 vz 537.7186716630443
Setting atom values ...
  10 settings made for vx
  10 settings made for vy
  10 settings made for vz
velocity	all zero angular
run 300 #inbetween bombardments
Step Time Temp Press TotEng Volume
300         0.03    1737.3701    10943.883    -30600.81    152589.85
Loop time of 6.20026 on 1 procs for 300 steps with 4840 atoms

next d
Increment via next: value 2 on partition 0
jump SELF nextd

create_atoms	2 random 1 $d3$d7 box
create_atoms	2 random 1 23$d7 box
create_atoms	2 random 1 2327 box
Created 1 atoms
set region box vx 0 vy 0 vz 537.7186716630443
Setting atom values ...
  3 settings made for vx
  3 settings made for vy
  3 settings made for vz
velocity	all zero angular
run 300 #inbetween bombardments
Step Time Temp Press TotEng Volume
600         0.06    1368.5195    11147.477   -30678.053    152589.85
Loop time of 6.30421 on 1 procs for 300 steps with 4841 atoms

next d
Increment via next: value 3 on partition 0
jump SELF nextd

create_atoms	2 random 1 $d3$d7 box
create_atoms	2 random 1 33$d7 box
create_atoms	2 random 1 3337 box
Created 1 atoms
set region box vx 0 vy 0 vz 537.7186716630443
Setting atom values ...
  3 settings made for vx
  3 settings made for vy
  3 settings made for vz
velocity	all zero angular
run 300 #inbetween bombardments
Step Time Temp Press TotEng Volume
900         0.09    1271.5135    10553.555   -30659.309    152589.85
Loop time of 6.33759 on 1 procs for 300 steps with 4842 atoms

next d
Increment via next: value 4 on partition 0
jump SELF nextd

create_atoms	2 random 1 $d3$d7 box
create_atoms	2 random 1 43$d7 box
create_atoms	2 random 1 4347 box
Created 1 atoms
set region box vx 0 vy 0 vz 537.7186716630443
Setting atom values ...
  3 settings made for vx
  3 settings made for vy
  3 settings made for vz
velocity	all zero angular
run 300 #inbetween bombardments
Step Time Temp Press TotEng Volume
1200         0.12    1040.5781    10248.974   -30756.576    152589.85
Loop time of 6.35949 on 1 procs for 300 steps with 4843 atoms

next d
Increment via next: value 5 on partition 0
jump SELF nextd

create_atoms	2 random 1 $d3$d7 box
create_atoms	2 random 1 53$d7 box
create_atoms	2 random 1 5357 box
Created 1 atoms
set region box vx 0 vy 0 vz 537.7186716630443
Setting atom values ...
  3 settings made for vx
  3 settings made for vy
  3 settings made for vz
velocity	all zero angular
run 300 #inbetween bombardments
Step Time Temp Press TotEng Volume
1500         0.15    1127.6687    10490.464   -30648.273    152589.85
Loop time of 7.67942 on 1 procs for 300 steps with 4844 atoms

next d
Increment via next: value 6 on partition 0
jump SELF nextd

create_atoms	2 random 1 $d3$d7 box
create_atoms	2 random 1 63$d7 box
create_atoms	2 random 1 6367 box
Created 1 atoms
set region box vx 0 vy 0 vz 537.7186716630443
Setting atom values ...
  1 settings made for vx
  1 settings made for vy
  1 settings made for vz
velocity	all zero angular
run 300 #inbetween bombardments
Step Time Temp Press TotEng Volume
1800         0.18    927.36268    9755.4357   -30786.008    152589.85
Loop time of 7.62254 on 1 procs for 300 steps with 4845 atoms

next d
Increment via next: value 7 on partition 0
jump SELF nextd

create_atoms	2 random 1 $d3$d7 box
create_atoms	2 random 1 73$d7 box
create_atoms	2 random 1 7377 box
Created 1 atoms
set region box vx 0 vy 0 vz 537.7186716630443
Setting atom values ...
  2 settings made for vx
  2 settings made for vy
  2 settings made for vz
velocity	all zero angular
run 300 #inbetween bombardments
Step Time Temp Press TotEng Volume
2100         0.21    1084.2245    10804.878   -30691.706    152589.85
Loop time of 8.10994 on 1 procs for 300 steps with 4846 atoms

next d
Increment via next: value 8 on partition 0
jump SELF nextd

create_atoms	2 random 1 $d3$d7 box
create_atoms	2 random 1 83$d7 box
create_atoms	2 random 1 8387 box
Created 1 atoms
set region box vx 0 vy 0 vz 537.7186716630443
Setting atom values ...
  2 settings made for vx
  2 settings made for vy
  2 settings made for vz
velocity	all zero angular
run 300 #inbetween bombardments
Step Time Temp Press TotEng Volume
2400         0.24    1110.7803    10372.575   -30657.587    152589.85
Loop time of 8.28155 on 1 procs for 300 steps with 4847 atoms

next d
Increment via next: value 9 on partition 0
jump SELF nextd

create_atoms	2 random 1 $d3$d7 box
create_atoms	2 random 1 93$d7 box
create_atoms	2 random 1 9397 box
Created 1 atoms
set region box vx 0 vy 0 vz 537.7186716630443
Setting atom values ...
  2 settings made for vx
  2 settings made for vy
  2 settings made for vz
velocity	all zero angular
run 300 #inbetween bombardments
Step Time Temp Press TotEng Volume
2700         0.27    939.71604    9490.2963   -30770.161    152589.85
Loop time of 8.24516 on 1 procs for 300 steps with 4848 atoms

next d
Increment via next: value 10 on partition 0
jump SELF nextd

create_atoms	2 random 1 $d3$d7 box
create_atoms	2 random 1 103$d7 box
create_atoms	2 random 1 103107 box
Created 1 atoms
set region box vx 0 vy 0 vz 537.7186716630443
Setting atom values ...
  2 settings made for vx
  2 settings made for vy
  2 settings made for vz
velocity	all zero angular
run 300 #inbetween bombardments
Step Time Temp Press TotEng Volume
3000          0.3    875.63548    8165.2183   -30817.698    152589.85
Loop time of 8.3563 on 1 procs for 300 steps with 4849 atoms

next d
Increment via next: value 11 on partition 0
jump SELF nextd

run 3000
Step Time Temp Press TotEng Volume
3300         0.33    737.84014    7661.6107   -30900.144    152589.85
Averages over the last 151 of 301 rows, steps 4800 to 6300:
Temp Press TotEng Volume
461.623 6537.67 -31252.8 152590
Loop time of 62.4042 on 1 procs for 3000 steps with 4849 atoms
